# DIS package for  MODFLOW-NWT, generated by Flopy.
         2       188        60         5         1         2
  0  0
INTERNAL               1  (60E15.6) -1 #delr                          
   1.000000E+03   1.000000E+03   5.000000E+02   5.000000E+02   5.000000E+02   1.000000E+02   1.000000E+02   1.000000E+02   1.000000E+02   1.000000E+02   1.000000E+02   1.000000E+02   1.000000E+02   1.000000E+02   1.000000E+02   1.000000E+02   1.000000E+02   1.000000E+02   1.000000E+02   1.000000E+02   1.000000E+02   1.000000E+02   1.000000E+02   1.000000E+02   1.000000E+02   1.000000E+02   1.000000E+02   1.000000E+02   1.000000E+02   1.000000E+02   1.000000E+02   1.000000E+02   1.000000E+02   1.000000E+02   1.000000E+02   1.000000E+02   1.000000E+02   1.000000E+02   1.000000E+02   1.000000E+02   1.000000E+02   1.000000E+02   1.000000E+02   1.000000E+02   1.000000E+02   1.000000E+02   1.000000E+02   1.000000E+02   1.000000E+02   1.000000E+02   1.000000E+02   1.000000E+02   1.000000E+02   1.000000E+02   1.000000E+02   5.000000E+02   5.000000E+02   5.000000E+02   1.000000E+03   1.000000E+03
INTERNAL               1 (188E15.6) -1 #delc                          
   1.000000E+02   1.000000E+02   1.000000E+02   1.000000E+02   1.000000E+02   1.000000E+02   1.000000E+02   1.000000E+02   1.000000E+02   1.000000E+02   1.000000E+02   1.000000E+02   1.000000E+02   1.000000E+02   1.000000E+02   1.000000E+02   1.000000E+02   1.000000E+02   1.000000E+02   1.000000E+02   1.000000E+02   1.000000E+02   1.000000E+02   1.000000E+02   1.000000E+02   1.000000E+02   1.000000E+02   1.000000E+02   1.000000E+02   1.000000E+02   1.000000E+02   1.000000E+02   1.000000E+02   1.000000E+02   1.000000E+02   1.000000E+02   1.000000E+02   1.000000E+02   1.000000E+02   1.000000E+02   1.000000E+02   1.000000E+02   1.000000E+02   1.000000E+02   1.000000E+02   1.000000E+02   1.000000E+02   1.000000E+02   1.000000E+02   1.000000E+02   1.000000E+02   1.000000E+02   1.000000E+02   1.000000E+02   1.000000E+02   1.000000E+02   1.000000E+02   1.000000E+02   1.000000E+02   1.000000E+02   1.000000E+02   1.000000E+02   1.000000E+02   1.000000E+02   1.000000E+02   1.000000E+02   1.000000E+02   1.000000E+02   1.000000E+02   1.000000E+02   1.000000E+02   1.000000E+02   1.000000E+02   1.000000E+02   1.000000E+02   1.000000E+02   1.000000E+02   1.000000E+02   1.000000E+02   1.000000E+02   1.000000E+02   1.000000E+02   1.000000E+02   1.000000E+02   1.000000E+02   1.000000E+02   1.000000E+02   1.000000E+02   1.000000E+02   1.000000E+02   1.000000E+02   1.000000E+02   1.000000E+02   1.000000E+02   1.000000E+02   1.000000E+02   1.000000E+02   1.000000E+02   1.000000E+02   1.000000E+02   1.000000E+02   1.000000E+02   1.000000E+02   1.000000E+02   1.000000E+02   1.000000E+02   1.000000E+02   1.000000E+02   1.000000E+02   1.000000E+02   1.000000E+02   1.000000E+02   1.000000E+02   1.000000E+02   1.000000E+02   1.000000E+02   1.000000E+02   1.000000E+02   1.000000E+02   1.000000E+02   1.000000E+02   1.000000E+02   1.000000E+02   1.000000E+02   1.000000E+02   1.000000E+02   1.000000E+02   1.000000E+02   1.000000E+02   1.000000E+02   1.000000E+02   1.000000E+02   1.000000E+02   1.000000E+02   1.000000E+02   1.000000E+02   1.000000E+02   1.000000E+02   1.000000E+02   1.000000E+02   1.000000E+02   1.000000E+02   1.000000E+02   1.000000E+02   1.000000E+02   1.000000E+02   1.000000E+02   1.000000E+02   1.000000E+02   1.000000E+02   1.000000E+02   1.000000E+02   1.000000E+02   1.000000E+02   1.000000E+02   1.000000E+02   1.000000E+02   1.000000E+02   1.000000E+02   1.000000E+02   1.000000E+02   1.000000E+02   1.000000E+02   1.000000E+02   1.000000E+02   1.000000E+02   1.000000E+02   1.000000E+02   1.000000E+02   1.000000E+02   1.000000E+02   1.000000E+02   1.000000E+02   1.000000E+02   1.000000E+02   1.000000E+02   1.000000E+02   1.000000E+02   1.000000E+02   1.000000E+02   1.000000E+02   1.000000E+02   1.000000E+02   1.000000E+02   1.000000E+02   1.000000E+02   1.000000E+02   1.000000E+02
INTERNAL               1  (60E15.6) -1 #model_top                     
   5.881200E+02   5.881200E+02   5.881200E+02   5.881200E+02   5.881200E+02   5.881200E+02   5.881200E+02   5.881200E+02   5.881200E+02   5.881200E+02   5.881200E+02   5.881200E+02   5.881200E+02   5.881200E+02   5.881826E+02   5.877041E+02   5.870695E+02   5.875480E+02   5.872739E+02   5.872014E+02   5.877471E+02   5.878396E+02   5.876294E+02   5.873005E+02   5.870331E+02   5.868306E+02   5.864678E+02   5.860386E+02   5.858409E+02   5.857643E+02   5.857808E+02   5.859033E+02   5.859160E+02   5.861777E+02   5.867051E+02   5.862562E+02   5.863503E+02   5.863503E+02   5.863503E+02   5.863503E+02   5.863503E+02   5.863503E+02   5.863503E+02   5.863503E+02   5.863503E+02   5.863503E+02   5.863503E+02   5.863503E+02   5.863503E+02   5.863503E+02   5.863503E+02   5.863503E+02   5.863503E+02   5.863503E+02   5.863503E+02   5.863503E+02   5.863503E+02   5.863503E+02   5.863503E+02   5.863503E+02
   5.882551E+02   5.882551E+02   5.882551E+02   5.882551E+02   5.882551E+02   5.882551E+02   5.882551E+02   5.882551E+02   5.882551E+02   5.882551E+02   5.882551E+02   5.882551E+02   5.882551E+02   5.882551E+02   5.882551E+02   5.877341E+02   5.873740E+02   5.877146E+02   5.874705E+02   5.873824E+02   5.878892E+02   5.879932E+02   5.876539E+02   5.873164E+02   5.870769E+02   5.867238E+02   5.863711E+02   5.860044E+02   5.860068E+02   5.860413E+02   5.860418E+02   5.860970E+02   5.861276E+02   5.864869E+02   5.867255E+02   5.868076E+02   5.867836E+02   5.867836E+02   5.867836E+02   5.867836E+02   5.867836E+02   5.867836E+02   5.867836E+02   5.867836E+02   5.867836E+02   5.867836E+02   5.867836E+02   5.867836E+02   5.867836E+02   5.867836E+02   5.867836E+02   5.867836E+02   5.867836E+02   5.867836E+02   5.867836E+02   5.867836E+02   5.867836E+02   5.867836E+02   5.867836E+02   5.867836E+02
   5.884130E+02   5.884130E+02   5.884130E+02   5.884130E+02   5.884130E+02   5.884130E+02   5.884130E+02   5.884130E+02   5.884130E+02   5.884130E+02   5.884130E+02   5.884130E+02   5.884130E+02   5.884130E+02   5.884130E+02   5.876671E+02   5.877529E+02   5.878245E+02   5.877029E+02   5.876481E+02   5.880269E+02   5.879927E+02   5.876963E+02   5.873535E+02   5.869350E+02   5.866030E+02   5.862547E+02   5.861668E+02   5.861877E+02   5.863677E+02   5.862690E+02   5.862903E+02   5.863691E+02   5.868111E+02   5.869628E+02   5.872862E+02   5.870026E+02   5.870026E+02   5.870026E+02   5.870026E+02   5.870026E+02   5.870026E+02   5.870026E+02   5.870026E+02   5.870026E+02   5.870026E+02   5.870026E+02   5.870026E+02   5.870026E+02   5.870026E+02   5.870026E+02   5.870026E+02   5.870026E+02   5.870026E+02   5.870026E+02   5.870026E+02   5.870026E+02   5.870026E+02   5.870026E+02   5.870026E+02
   5.885798E+02   5.885798E+02   5.885798E+02   5.885798E+02   5.885798E+02   5.885798E+02   5.885798E+02   5.885798E+02   5.885798E+02   5.885798E+02   5.885798E+02   5.885798E+02   5.885798E+02   5.885798E+02   5.884879E+02   5.876782E+02   5.880103E+02   5.880861E+02   5.879295E+02   5.878745E+02   5.881479E+02   5.879807E+02   5.875203E+02   5.870257E+02   5.867755E+02   5.866757E+02   5.863671E+02   5.863370E+02   5.863665E+02   5.865270E+02   5.865097E+02   5.864353E+02   5.865156E+02   5.867845E+02   5.870071E+02   5.873324E+02   5.873324E+02   5.873324E+02   5.873324E+02   5.873324E+02   5.873324E+02   5.873324E+02   5.873324E+02   5.873324E+02   5.873324E+02   5.873324E+02   5.873324E+02   5.873324E+02   5.873324E+02   5.873324E+02   5.873324E+02   5.873324E+02   5.873324E+02   5.873324E+02   5.873324E+02   5.873324E+02   5.873324E+02   5.873324E+02   5.873324E+02   5.873324E+02
   5.884736E+02   5.884736E+02   5.884736E+02   5.884736E+02   5.884736E+02   5.884736E+02   5.884736E+02   5.884736E+02   5.884736E+02   5.884736E+02   5.884736E+02   5.884736E+02   5.884736E+02   5.884736E+02   5.884251E+02   5.878898E+02   5.882662E+02   5.883455E+02   5.882060E+02   5.881879E+02   5.881957E+02   5.876232E+02   5.872163E+02   5.869648E+02   5.869175E+02   5.868018E+02   5.864863E+02   5.865243E+02   5.864887E+02   5.866710E+02   5.867418E+02   5.866215E+02   5.866730E+02   5.869031E+02   5.870988E+02   5.872098E+02   5.872098E+02   5.872098E+02   5.872098E+02   5.872098E+02   5.872098E+02   5.872098E+02   5.872098E+02   5.872098E+02   5.872098E+02   5.872098E+02   5.872098E+02   5.872098E+02   5.872098E+02   5.872098E+02   5.872098E+02   5.872098E+02   5.872098E+02   5.872098E+02   5.872098E+02   5.872098E+02   5.872098E+02   5.872098E+02   5.872098E+02   5.872098E+02
   5.887451E+02   5.887451E+02   5.887451E+02   5.887451E+02   5.887451E+02   5.887451E+02   5.887451E+02   5.887451E+02   5.887451E+02   5.887451E+02   5.887451E+02   5.887451E+02   5.887451E+02   5.887451E+02   5.884777E+02   5.880710E+02   5.886190E+02   5.887655E+02   5.886215E+02   5.884615E+02   5.881247E+02   5.875206E+02   5.872069E+02   5.870876E+02   5.870535E+02   5.868315E+02   5.866691E+02   5.868021E+02   5.866128E+02   5.866770E+02   5.868417E+02   5.868602E+02   5.868374E+02   5.871310E+02   5.874760E+02   5.874337E+02   5.874337E+02   5.874337E+02   5.874337E+02   5.874337E+02   5.874337E+02   5.874337E+02   5.874337E+02   5.874337E+02   5.874337E+02   5.874337E+02   5.874337E+02   5.874337E+02   5.874337E+02   5.874337E+02   5.874337E+02   5.874337E+02   5.874337E+02   5.874337E+02   5.874337E+02   5.874337E+02   5.874337E+02   5.874337E+02   5.874337E+02   5.874337E+02
   5.887822E+02   5.887822E+02   5.887822E+02   5.887822E+02   5.887822E+02   5.887822E+02   5.887822E+02   5.887822E+02   5.887822E+02   5.887822E+02   5.887822E+02   5.887822E+02   5.887822E+02   5.887822E+02   5.887224E+02   5.882188E+02   5.888016E+02   5.889617E+02   5.886585E+02   5.885986E+02   5.880588E+02   5.875103E+02   5.872806E+02   5.872039E+02   5.872266E+02   5.870288E+02   5.868966E+02   5.869138E+02   5.868058E+02   5.867343E+02   5.869007E+02   5.870296E+02   5.871293E+02   5.873211E+02   5.875212E+02   5.875212E+02   5.875212E+02   5.875212E+02   5.875212E+02   5.875212E+02   5.875212E+02   5.875212E+02   5.875212E+02   5.875212E+02   5.875212E+02   5.875212E+02   5.875212E+02   5.875212E+02   5.875212E+02   5.875212E+02   5.875212E+02   5.875212E+02   5.875212E+02   5.875212E+02   5.875212E+02   5.875212E+02   5.875212E+02   5.875212E+02   5.875212E+02   5.875212E+02
   5.892100E+02   5.892100E+02   5.892100E+02   5.892100E+02   5.892100E+02   5.892100E+02   5.892100E+02   5.892100E+02   5.892100E+02   5.892100E+02   5.892100E+02   5.892100E+02   5.892100E+02   5.893552E+02   5.889076E+02   5.884878E+02   5.889458E+02   5.889821E+02   5.887396E+02   5.884495E+02   5.879792E+02   5.875711E+02   5.874964E+02   5.875643E+02   5.877155E+02   5.872964E+02   5.871412E+02   5.871291E+02   5.869238E+02   5.868186E+02   5.869516E+02   5.872469E+02   5.875461E+02   5.874714E+02   5.875124E+02   5.875124E+02   5.875124E+02   5.875124E+02   5.875124E+02   5.875124E+02   5.875124E+02   5.875124E+02   5.875124E+02   5.875124E+02   5.875124E+02   5.875124E+02   5.875124E+02   5.875124E+02   5.875124E+02   5.875124E+02   5.875124E+02   5.875124E+02   5.875124E+02   5.875124E+02   5.875124E+02   5.875124E+02   5.875124E+02   5.875124E+02   5.875124E+02   5.875124E+02
   5.895046E+02   5.895046E+02   5.895046E+02   5.895046E+02   5.895046E+02   5.895046E+02   5.895046E+02   5.895046E+02   5.895046E+02   5.895046E+02   5.895046E+02   5.895046E+02   5.895046E+02   5.895046E+02   5.890430E+02   5.887187E+02   5.891119E+02   5.891431E+02   5.887701E+02   5.883795E+02   5.880048E+02   5.878841E+02   5.879717E+02   5.879825E+02   5.878959E+02   5.874991E+02   5.874819E+02   5.873652E+02   5.870602E+02   5.869745E+02   5.870058E+02   5.874392E+02   5.878513E+02   5.875454E+02   5.875597E+02   5.875597E+02   5.875597E+02   5.875597E+02   5.875597E+02   5.875597E+02   5.875597E+02   5.875597E+02   5.875597E+02   5.875597E+02   5.875597E+02   5.875597E+02   5.875597E+02   5.875597E+02   5.875597E+02   5.875597E+02   5.875597E+02   5.875597E+02   5.875597E+02   5.875597E+02   5.875597E+02   5.875597E+02   5.875597E+02   5.875597E+02   5.875597E+02   5.875597E+02
   5.895579E+02   5.895579E+02   5.895579E+02   5.895579E+02   5.895579E+02   5.895579E+02   5.895579E+02   5.895579E+02   5.895579E+02   5.895579E+02   5.895579E+02   5.895579E+02   5.895579E+02   5.895579E+02   5.891478E+02   5.888018E+02   5.892783E+02   5.892088E+02   5.888365E+02   5.885092E+02   5.883984E+02   5.884862E+02   5.883444E+02   5.884286E+02   5.880570E+02   5.879034E+02   5.878619E+02   5.877786E+02   5.872219E+02   5.871633E+02   5.871224E+02   5.875849E+02   5.879957E+02   5.876191E+02   5.876647E+02   5.876647E+02   5.876647E+02   5.876647E+02   5.876647E+02   5.876647E+02   5.876647E+02   5.876647E+02   5.876647E+02   5.876647E+02   5.876647E+02   5.876647E+02   5.876647E+02   5.876647E+02   5.876647E+02   5.876647E+02   5.876647E+02   5.876647E+02   5.876647E+02   5.876647E+02   5.876647E+02   5.876647E+02   5.876647E+02   5.876647E+02   5.876647E+02   5.876647E+02
   5.896300E+02   5.896300E+02   5.896300E+02   5.896300E+02   5.896300E+02   5.896300E+02   5.896300E+02   5.896300E+02   5.896300E+02   5.896300E+02   5.896300E+02   5.896300E+02   5.896300E+02   5.897170E+02   5.892332E+02   5.889864E+02   5.893963E+02   5.892899E+02   5.889367E+02   5.887653E+02   5.890262E+02   5.889626E+02   5.888677E+02   5.887315E+02   5.884032E+02   5.883544E+02   5.881202E+02   5.880796E+02   5.874965E+02   5.872648E+02   5.872950E+02   5.875518E+02   5.879690E+02   5.878233E+02   5.877649E+02   5.877649E+02   5.877649E+02   5.877649E+02   5.877649E+02   5.877649E+02   5.877649E+02   5.877649E+02   5.877649E+02   5.877649E+02   5.877649E+02   5.877649E+02   5.877649E+02   5.877649E+02   5.877649E+02   5.877649E+02   5.877649E+02   5.877649E+02   5.877649E+02   5.877649E+02   5.877649E+02   5.877649E+02   5.877649E+02   5.877649E+02   5.877649E+02   5.877649E+02
   5.898086E+02   5.898086E+02   5.898086E+02   5.898086E+02   5.898086E+02   5.898086E+02   5.898086E+02   5.898086E+02   5.898086E+02   5.898086E+02   5.898086E+02   5.898086E+02   5.898086E+02   5.898086E+02   5.892933E+02   5.892785E+02   5.895775E+02   5.893766E+02   5.891322E+02   5.889872E+02   5.891930E+02   5.894531E+02   5.892946E+02   5.887674E+02   5.886702E+02   5.886579E+02   5.884219E+02   5.880696E+02   5.877505E+02   5.874189E+02   5.874089E+02   5.876221E+02   5.879517E+02   5.881495E+02   5.881495E+02   5.881495E+02   5.881495E+02   5.881495E+02   5.881495E+02   5.881495E+02   5.881495E+02   5.881495E+02   5.881495E+02   5.881495E+02   5.881495E+02   5.881495E+02   5.881495E+02   5.881495E+02   5.881495E+02   5.881495E+02   5.881495E+02   5.881495E+02   5.881495E+02   5.881495E+02   5.881495E+02   5.881495E+02   5.881495E+02   5.881495E+02   5.881495E+02   5.881495E+02
   5.899105E+02   5.899105E+02   5.899105E+02   5.899105E+02   5.899105E+02   5.899105E+02   5.899105E+02   5.899105E+02   5.899105E+02   5.899105E+02   5.899105E+02   5.899105E+02   5.899105E+02   5.899105E+02   5.893759E+02   5.893548E+02   5.896772E+02   5.896451E+02   5.894129E+02   5.891871E+02   5.892686E+02   5.894108E+02   5.892745E+02   5.891572E+02   5.889618E+02   5.888090E+02   5.886835E+02   5.881244E+02   5.879722E+02   5.876562E+02   5.875450E+02   5.877334E+02   5.880596E+02   5.883472E+02   5.883472E+02   5.883472E+02   5.883472E+02   5.883472E+02   5.883472E+02   5.883472E+02   5.883472E+02   5.883472E+02   5.883472E+02   5.883472E+02   5.883472E+02   5.883472E+02   5.883472E+02   5.883472E+02   5.883472E+02   5.883472E+02   5.883472E+02   5.883472E+02   5.883472E+02   5.883472E+02   5.883472E+02   5.883472E+02   5.883472E+02   5.883472E+02   5.883472E+02   5.883472E+02
   5.898500E+02   5.898500E+02   5.898500E+02   5.898500E+02   5.898500E+02   5.898500E+02   5.898500E+02   5.898500E+02   5.898500E+02   5.898500E+02   5.898500E+02   5.898500E+02   5.898500E+02   5.899916E+02   5.894847E+02   5.894279E+02   5.898274E+02   5.898817E+02   5.896176E+02   5.894893E+02   5.895596E+02   5.896541E+02   5.896673E+02   5.893381E+02   5.889492E+02   5.890410E+02   5.888351E+02   5.882673E+02   5.882161E+02   5.878358E+02   5.876877E+02   5.878644E+02   5.882266E+02   5.884084E+02   5.884084E+02   5.884084E+02   5.884084E+02   5.884084E+02   5.884084E+02   5.884084E+02   5.884084E+02   5.884084E+02   5.884084E+02   5.884084E+02   5.884084E+02   5.884084E+02   5.884084E+02   5.884084E+02   5.884084E+02   5.884084E+02   5.884084E+02   5.884084E+02   5.884084E+02   5.884084E+02   5.884084E+02   5.884084E+02   5.884084E+02   5.884084E+02   5.884084E+02   5.884084E+02
   5.900860E+02   5.900860E+02   5.900860E+02   5.900860E+02   5.900860E+02   5.900860E+02   5.900860E+02   5.900860E+02   5.900860E+02   5.900860E+02   5.900860E+02   5.900860E+02   5.900860E+02   5.900733E+02   5.895751E+02   5.894726E+02   5.899012E+02   5.900300E+02   5.898505E+02   5.895692E+02   5.895298E+02   5.895911E+02   5.897680E+02   5.893018E+02   5.891516E+02   5.893326E+02   5.891481E+02   5.884915E+02   5.885358E+02   5.879832E+02   5.878722E+02   5.880223E+02   5.883920E+02   5.886271E+02   5.886271E+02   5.886271E+02   5.886271E+02   5.886271E+02   5.886271E+02   5.886271E+02   5.886271E+02   5.886271E+02   5.886271E+02   5.886271E+02   5.886271E+02   5.886271E+02   5.886271E+02   5.886271E+02   5.886271E+02   5.886271E+02   5.886271E+02   5.886271E+02   5.886271E+02   5.886271E+02   5.886271E+02   5.886271E+02   5.886271E+02   5.886271E+02   5.886271E+02   5.886271E+02
   5.902600E+02   5.902600E+02   5.902600E+02   5.902600E+02   5.902600E+02   5.902600E+02   5.902600E+02   5.902600E+02   5.902600E+02   5.902600E+02   5.902600E+02   5.902600E+02   5.902600E+02   5.901592E+02   5.897120E+02   5.895457E+02   5.899587E+02   5.900472E+02   5.898891E+02   5.896679E+02   5.895850E+02   5.897390E+02   5.898436E+02   5.897890E+02   5.897263E+02   5.893942E+02   5.891869E+02   5.887087E+02   5.886270E+02   5.881127E+02   5.881686E+02   5.881909E+02   5.885238E+02   5.887839E+02   5.887839E+02   5.887839E+02   5.887839E+02   5.887839E+02   5.887839E+02   5.887839E+02   5.887839E+02   5.887839E+02   5.887839E+02   5.887839E+02   5.887839E+02   5.887839E+02   5.887839E+02   5.887839E+02   5.887839E+02   5.887839E+02   5.887839E+02   5.887839E+02   5.887839E+02   5.887839E+02   5.887839E+02   5.887839E+02   5.887839E+02   5.887839E+02   5.887839E+02   5.887839E+02
   5.903349E+02   5.903349E+02   5.903349E+02   5.903349E+02   5.903349E+02   5.903349E+02   5.903349E+02   5.903349E+02   5.903349E+02   5.903349E+02   5.903349E+02   5.903349E+02   5.903349E+02   5.903768E+02   5.898934E+02   5.896342E+02   5.898730E+02   5.902079E+02   5.900847E+02   5.898884E+02   5.897784E+02   5.898885E+02   5.899553E+02   5.895924E+02   5.893677E+02   5.893987E+02   5.894430E+02   5.889662E+02   5.885886E+02   5.883931E+02   5.883185E+02   5.883398E+02   5.886848E+02   5.889992E+02   5.889992E+02   5.889992E+02   5.889992E+02   5.889992E+02   5.889992E+02   5.889992E+02   5.889992E+02   5.889992E+02   5.889992E+02   5.889992E+02   5.889992E+02   5.889992E+02   5.889992E+02   5.889992E+02   5.889992E+02   5.889992E+02   5.889992E+02   5.889992E+02   5.889992E+02   5.889992E+02   5.889992E+02   5.889992E+02   5.889992E+02   5.889992E+02   5.889992E+02   5.889992E+02
   5.906468E+02   5.906468E+02   5.906468E+02   5.906468E+02   5.906468E+02   5.906468E+02   5.906468E+02   5.906468E+02   5.906468E+02   5.906468E+02   5.906468E+02   5.906468E+02   5.906468E+02   5.906233E+02   5.901042E+02   5.897413E+02   5.899209E+02   5.903278E+02   5.903936E+02   5.901693E+02   5.900174E+02   5.899588E+02   5.901266E+02   5.898475E+02   5.897631E+02   5.898952E+02   5.894551E+02   5.890089E+02   5.886637E+02   5.885263E+02   5.885020E+02   5.885432E+02   5.889011E+02   5.892108E+02   5.892108E+02   5.892108E+02   5.892108E+02   5.892108E+02   5.892108E+02   5.892108E+02   5.892108E+02   5.892108E+02   5.892108E+02   5.892108E+02   5.892108E+02   5.892108E+02   5.892108E+02   5.892108E+02   5.892108E+02   5.892108E+02   5.892108E+02   5.892108E+02   5.892108E+02   5.892108E+02   5.892108E+02   5.892108E+02   5.892108E+02   5.892108E+02   5.892108E+02   5.892108E+02
   5.907905E+02   5.907905E+02   5.907905E+02   5.907905E+02   5.907905E+02   5.907905E+02   5.907905E+02   5.907905E+02   5.907905E+02   5.907905E+02   5.907905E+02   5.907905E+02   5.907905E+02   5.907905E+02   5.903388E+02   5.899518E+02   5.899533E+02   5.902871E+02   5.906337E+02   5.905948E+02   5.902651E+02   5.901818E+02   5.903186E+02   5.902695E+02   5.902125E+02   5.897863E+02   5.894576E+02   5.892031E+02   5.887894E+02   5.886017E+02   5.886594E+02   5.887296E+02   5.890950E+02   5.893921E+02   5.893921E+02   5.893921E+02   5.893921E+02   5.893921E+02   5.893921E+02   5.893921E+02   5.893921E+02   5.893921E+02   5.893921E+02   5.893921E+02   5.893921E+02   5.893921E+02   5.893921E+02   5.893921E+02   5.893921E+02   5.893921E+02   5.893921E+02   5.893921E+02   5.893921E+02   5.893921E+02   5.893921E+02   5.893921E+02   5.893921E+02   5.893921E+02   5.893921E+02   5.893921E+02
   5.910320E+02   5.910320E+02   5.910320E+02   5.910320E+02   5.910320E+02   5.910320E+02   5.910320E+02   5.910320E+02   5.910320E+02   5.910320E+02   5.910320E+02   5.910320E+02   5.910320E+02   5.909798E+02   5.905536E+02   5.901926E+02   5.900674E+02   5.902266E+02   5.905174E+02   5.906755E+02   5.903109E+02   5.903886E+02   5.903577E+02   5.899995E+02   5.899030E+02   5.897056E+02   5.894229E+02   5.891679E+02   5.889392E+02   5.888244E+02   5.887891E+02   5.889360E+02   5.891720E+02   5.894200E+02   5.894200E+02   5.894200E+02   5.894200E+02   5.894200E+02   5.894200E+02   5.894200E+02   5.894200E+02   5.894200E+02   5.894200E+02   5.894200E+02   5.894200E+02   5.894200E+02   5.894200E+02   5.894200E+02   5.894200E+02   5.894200E+02   5.894200E+02   5.894200E+02   5.894200E+02   5.894200E+02   5.894200E+02   5.894200E+02   5.894200E+02   5.894200E+02   5.894200E+02   5.894200E+02
   5.910770E+02   5.910770E+02   5.910770E+02   5.910770E+02   5.910770E+02   5.910770E+02   5.910770E+02   5.910770E+02   5.910770E+02   5.910770E+02   5.910770E+02   5.910770E+02   5.910770E+02   5.912234E+02   5.908280E+02   5.904492E+02   5.901705E+02   5.903112E+02   5.905188E+02   5.907693E+02   5.904929E+02   5.904404E+02   5.902634E+02   5.898670E+02   5.896785E+02   5.894492E+02   5.893531E+02   5.891898E+02   5.891393E+02   5.891255E+02   5.889948E+02   5.890466E+02   5.892308E+02   5.893906E+02   5.893906E+02   5.893906E+02   5.893906E+02   5.893906E+02   5.893906E+02   5.893906E+02   5.893906E+02   5.893906E+02   5.893906E+02   5.893906E+02   5.893906E+02   5.893906E+02   5.893906E+02   5.893906E+02   5.893906E+02   5.893906E+02   5.893906E+02   5.893906E+02   5.893906E+02   5.893906E+02   5.893906E+02   5.893906E+02   5.893906E+02   5.893906E+02   5.893906E+02   5.893906E+02
   5.919028E+02   5.919028E+02   5.919028E+02   5.919028E+02   5.919028E+02   5.919028E+02   5.919028E+02   5.919028E+02   5.919028E+02   5.919028E+02   5.919028E+02   5.919028E+02   5.919028E+02   5.915295E+02   5.911057E+02   5.907101E+02   5.902975E+02   5.903643E+02   5.905681E+02   5.908913E+02   5.906000E+02   5.906393E+02   5.903513E+02   5.900512E+02   5.897037E+02   5.893937E+02   5.893728E+02   5.893557E+02   5.893592E+02   5.893328E+02   5.891729E+02   5.891873E+02   5.893948E+02   5.894179E+02   5.894179E+02   5.894179E+02   5.894179E+02   5.894179E+02   5.894179E+02   5.894179E+02   5.894179E+02   5.894179E+02   5.894179E+02   5.894179E+02   5.894179E+02   5.894179E+02   5.894179E+02   5.894179E+02   5.894179E+02   5.894179E+02   5.894179E+02   5.894179E+02   5.894179E+02   5.894179E+02   5.894179E+02   5.894179E+02   5.894179E+02   5.894179E+02   5.894179E+02   5.894179E+02
   5.922278E+02   5.922278E+02   5.922278E+02   5.922278E+02   5.922278E+02   5.922278E+02   5.922278E+02   5.922278E+02   5.922278E+02   5.922278E+02   5.922278E+02   5.922278E+02   5.922278E+02   5.918146E+02   5.913386E+02   5.909516E+02   5.904933E+02   5.903880E+02   5.907273E+02   5.910476E+02   5.907590E+02   5.908314E+02   5.904832E+02   5.902294E+02   5.898835E+02   5.896849E+02   5.896004E+02   5.895544E+02   5.895339E+02   5.895055E+02   5.894097E+02   5.894382E+02   5.895292E+02   5.896530E+02   5.896530E+02   5.896530E+02   5.896530E+02   5.896530E+02   5.896530E+02   5.896530E+02   5.896530E+02   5.896530E+02   5.896530E+02   5.896530E+02   5.896530E+02   5.896530E+02   5.896530E+02   5.896530E+02   5.896530E+02   5.896530E+02   5.896530E+02   5.896530E+02   5.896530E+02   5.896530E+02   5.896530E+02   5.896530E+02   5.896530E+02   5.896530E+02   5.896530E+02   5.896530E+02
   5.924926E+02   5.924926E+02   5.924926E+02   5.924926E+02   5.924926E+02   5.924926E+02   5.924926E+02   5.924926E+02   5.924926E+02   5.924926E+02   5.924926E+02   5.924926E+02   5.924926E+02   5.921343E+02   5.916080E+02   5.911843E+02   5.906862E+02   5.904718E+02   5.908893E+02   5.911440E+02   5.908826E+02   5.909003E+02   5.905978E+02   5.904489E+02   5.905212E+02   5.899878E+02   5.898451E+02   5.896652E+02   5.896320E+02   5.896534E+02   5.896738E+02   5.897392E+02   5.896934E+02   5.896934E+02   5.896934E+02   5.896934E+02   5.896934E+02   5.896934E+02   5.896934E+02   5.896934E+02   5.896934E+02   5.896934E+02   5.896934E+02   5.896934E+02   5.896934E+02   5.896934E+02   5.896934E+02   5.896934E+02   5.896934E+02   5.896934E+02   5.896934E+02   5.896934E+02   5.896934E+02   5.896934E+02   5.896934E+02   5.896934E+02   5.896934E+02   5.896934E+02   5.896934E+02   5.896934E+02
   5.927400E+02   5.927400E+02   5.927400E+02   5.927400E+02   5.927400E+02   5.927400E+02   5.927400E+02   5.927400E+02   5.927400E+02   5.927400E+02   5.927400E+02   5.927400E+02   5.927540E+02   5.923983E+02   5.918617E+02   5.913635E+02   5.907784E+02   5.906270E+02   5.910116E+02   5.912439E+02   5.910202E+02   5.910093E+02   5.910621E+02   5.910622E+02   5.907651E+02   5.903701E+02   5.900601E+02   5.897748E+02   5.896946E+02   5.899263E+02   5.899805E+02   5.900629E+02   5.900905E+02   5.900905E+02   5.900905E+02   5.900905E+02   5.900905E+02   5.900905E+02   5.900905E+02   5.900905E+02   5.900905E+02   5.900905E+02   5.900905E+02   5.900905E+02   5.900905E+02   5.900905E+02   5.900905E+02   5.900905E+02   5.900905E+02   5.900905E+02   5.900905E+02   5.900905E+02   5.900905E+02   5.900905E+02   5.900905E+02   5.900905E+02   5.900905E+02   5.900905E+02   5.900905E+02   5.900905E+02
   5.931600E+02   5.931600E+02   5.931600E+02   5.931600E+02   5.931600E+02   5.931600E+02   5.931600E+02   5.931600E+02   5.931600E+02   5.931600E+02   5.931600E+02   5.931600E+02   5.930176E+02   5.926217E+02   5.920327E+02   5.914706E+02   5.908209E+02   5.908525E+02   5.911610E+02   5.914248E+02   5.913275E+02   5.911773E+02   5.912870E+02   5.911752E+02   5.909120E+02   5.907065E+02   5.902248E+02   5.899340E+02   5.898262E+02   5.902240E+02   5.902146E+02   5.902183E+02   5.902887E+02   5.902887E+02   5.902887E+02   5.902887E+02   5.902887E+02   5.902887E+02   5.902887E+02   5.902887E+02   5.902887E+02   5.902887E+02   5.902887E+02   5.902887E+02   5.902887E+02   5.902887E+02   5.902887E+02   5.902887E+02   5.902887E+02   5.902887E+02   5.902887E+02   5.902887E+02   5.902887E+02   5.902887E+02   5.902887E+02   5.902887E+02   5.902887E+02   5.902887E+02   5.902887E+02   5.902887E+02
   5.930600E+02   5.930600E+02   5.930600E+02   5.930600E+02   5.930600E+02   5.930600E+02   5.930600E+02   5.930600E+02   5.930600E+02   5.930600E+02   5.930600E+02   5.930600E+02   5.932880E+02   5.928178E+02   5.921142E+02   5.915182E+02   5.908788E+02   5.911001E+02   5.913661E+02   5.915518E+02   5.917582E+02   5.913925E+02   5.912955E+02   5.914474E+02   5.911629E+02   5.908759E+02   5.905244E+02   5.901216E+02   5.900092E+02   5.903902E+02   5.904897E+02   5.904637E+02   5.905209E+02   5.905209E+02   5.905209E+02   5.905209E+02   5.905209E+02   5.905209E+02   5.905209E+02   5.905209E+02   5.905209E+02   5.905209E+02   5.905209E+02   5.905209E+02   5.905209E+02   5.905209E+02   5.905209E+02   5.905209E+02   5.905209E+02   5.905209E+02   5.905209E+02   5.905209E+02   5.905209E+02   5.905209E+02   5.905209E+02   5.905209E+02   5.905209E+02   5.905209E+02   5.905209E+02   5.905209E+02
   5.934300E+02   5.934300E+02   5.934300E+02   5.934300E+02   5.934300E+02   5.934300E+02   5.934300E+02   5.934300E+02   5.934300E+02   5.934300E+02   5.934300E+02   5.934300E+02   5.934968E+02   5.929318E+02   5.921763E+02   5.914830E+02   5.909242E+02   5.913610E+02   5.916564E+02   5.919695E+02   5.917976E+02   5.916032E+02   5.915336E+02   5.916385E+02   5.914731E+02   5.910549E+02   5.907330E+02   5.903752E+02   5.901340E+02   5.903815E+02   5.906329E+02   5.907000E+02   5.907250E+02   5.907250E+02   5.907250E+02   5.907250E+02   5.907250E+02   5.907250E+02   5.907250E+02   5.907250E+02   5.907250E+02   5.907250E+02   5.907250E+02   5.907250E+02   5.907250E+02   5.907250E+02   5.907250E+02   5.907250E+02   5.907250E+02   5.907250E+02   5.907250E+02   5.907250E+02   5.907250E+02   5.907250E+02   5.907250E+02   5.907250E+02   5.907250E+02   5.907250E+02   5.907250E+02   5.907250E+02